@<TRIPOS>MOLECULE
L7G
   42    45     1     0     0
SMALL
resp


@<TRIPOS>ATOM
      1 C1          11.7980    -2.3990     1.0870 c3         1 L7G      -0.321829
      2 N1          13.1440    -2.7110     0.5890 n          1 L7G      -0.112393
      3 C2          14.2830    -2.6380     1.2930 cz         1 L7G       0.647609
      4 N2          14.3930    -2.3410     2.5930 nh         1 L7G      -0.922078
      5 N3          15.3430    -2.9150     0.5360 nh         1 L7G      -0.453262
      6 C3          14.9930    -3.2410    -0.8410 c3         1 L7G      -0.038512
      7 C4          15.5290    -2.1820    -1.8220 ca         1 L7G       0.064453
      8 C5          16.1090    -2.5500    -3.0600 ca         1 L7G      -0.175403
      9 C6          16.5420    -1.5650    -3.9600 ca         1 L7G      -0.158260
     10 C7          16.3800    -0.2050    -3.6510 ca         1 L7G      -0.075911
     11 C8          15.8270     0.2070    -2.4200 cp         1 L7G      -0.001977
     12 C9          15.6410     1.6450    -2.1090 cp         1 L7G      -0.172772
     13 C10         15.4590     2.6160    -3.1210 ca         1 L7G       0.323758
     14 N11         15.2270     3.9240    -2.8890 nb         1 L7G      -0.577175
     15 C12         15.1700     4.3400    -1.6090 ca         1 L7G       0.260455
     16 C13         15.3730     3.4810    -0.5180 ca         1 L7G       0.078106
     17 F1          15.3300     3.9440     0.7550 f          1 L7G      -0.178816
     18 C14         15.6170     2.1240    -0.7820 ca         1 L7G      -0.035335
     19 C15         15.4210    -0.8010    -1.5130 ca         1 L7G      -0.122723
     20 CA1         15.5510    -4.6480    -1.1200 cx         1 L7G      -0.248105
     21 CA2         14.9110    -5.9230    -0.6060 cx         1 L7G      -0.230558
     22 CA3         14.9370    -5.6380    -2.0870 cx         1 L7G      -0.230558
     23 C16         13.4570    -3.1150    -0.7470 c          1 L7G       0.575651
     24 O1          12.6180    -3.2760    -1.6390 o          1 L7G      -0.424519
     25 H1          11.6580    -2.7980     2.0920 h1         1 L7G       0.166170
     26 H2          11.6670    -1.3180     1.1260 h1         1 L7G       0.166170
     27 H3          11.0220    -2.8150     0.4440 h1         1 L7G       0.166170
     28 H4          13.6190    -2.0640     3.1940 hn         1 L7G       0.471012
     29 H5          16.3120    -2.8870     0.8620 hn         1 L7G       0.399715
     30 H6          16.2270    -3.5830    -3.3540 ha         1 L7G       0.162063
     31 H7          16.9850    -1.8490    -4.9040 ha         1 L7G       0.174194
     32 H8          16.6900     0.5210    -4.3860 ha         1 L7G       0.145933
     33 H9          15.4610     2.3330    -4.1630 h4         1 L7G       0.065505
     34 H11         14.9600     5.3880    -1.4510 h4         1 L7G       0.103909
     35 H12         15.7910     1.4550     0.0430 ha         1 L7G       0.147732
     36 H13         14.9730    -0.5100    -0.5740 ha         1 L7G       0.084080
     37 HA1         16.6380    -4.6590    -1.0910 hc         1 L7G       0.215622
     38 HA2         15.5750    -6.7040    -0.2410 hc         1 L7G       0.147717
     39 HA3         13.9460    -5.8680    -0.1050 hc         1 L7G       0.147717
     40 HA4         13.9880    -5.3930    -2.5520 hc         1 L7G       0.147717
     41 HA5         15.6150    -6.2210    -2.7070 hc         1 L7G       0.147717
     42 H14         15.3190    -2.3300     3.0220 hn         1 L7G       0.471012
@<TRIPOS>BOND
     1     1     2 1   
     2     1    25 1   
     3     1    26 1   
     4     1    27 1   
     5     2     3 2   
     6     2    23 1   
     7     3     4 1   
     8     3     5 1   
     9     4    28 1   
    10     4    42 1   
    11     5     6 1   
    12     5    29 1   
    13     6     7 1   
    14     6    20 1   
    15     6    23 1   
    16     7     8 ar  
    17     7    19 ar  
    18     8     9 ar  
    19     8    30 1   
    20     9    10 ar  
    21     9    31 1   
    22    10    11 ar  
    23    10    32 1   
    24    11    12 1   
    25    11    19 ar  
    26    12    13 ar  
    27    12    18 ar  
    28    13    14 ar  
    29    13    33 1   
    30    14    15 ar  
    31    15    16 ar  
    32    15    34 1   
    33    16    17 1   
    34    16    18 ar  
    35    18    35 1   
    36    19    36 1   
    37    20    21 1   
    38    20    22 1   
    39    20    37 1   
    40    21    22 1   
    41    21    38 1   
    42    21    39 1   
    43    22    40 1   
    44    22    41 1   
    45    23    24 2   
@<TRIPOS>SUBSTRUCTURE
     1 L7G         1 TEMP              0 ****  ****    0 ROOT
