@<TRIPOS>MOLECULE
L3O
   42    45     1     0     0
SMALL
resp


@<TRIPOS>ATOM
      1 C1          11.7740    -2.0620     1.1340 c3         1 L3O      -0.308293
      2 N1          13.0790    -2.4520     0.5880 n          1 L3O       0.000392
      3 C2          14.2430    -2.5420     1.2540 cz         1 L3O       0.427074
      4 N2          14.4170    -2.3500     2.5690 nh         1 L3O      -0.826497
      5 N3          15.2560    -2.8530     0.4410 nh         1 L3O      -0.384280
      6 C3          14.8080    -3.0850    -0.9330 c3         1 L3O       0.005483
      7 C4          15.4260    -2.0580    -1.9130 ca         1 L3O      -0.002885
      8 C5          15.8980    -2.3990    -3.2010 ca         1 L3O      -0.126280
      9 C6          16.3930    -1.4100    -4.0610 ca         1 L3O      -0.168036
     10 C7          16.3360    -0.0550    -3.6930 ca         1 L3O      -0.108282
     11 C8          15.8300     0.3420    -2.4380 cp         1 L3O       0.023306
     12 C9          15.6350     1.7780    -2.1100 cp         1 L3O       0.033822
     13 C10         15.3650     2.7170    -3.1350 ca         1 L3O      -0.136200
     14 C11         15.0640     4.0620    -2.8390 ca         1 L3O      -0.208009
     15 C12         15.0420     4.5010    -1.5070 ca         1 L3O      -0.015630
     16 C13         15.3460     3.6010    -0.4750 ca         1 L3O      -0.050726
     17 CL1         15.3400     4.1600     1.1570 cl         1 L3O      -0.094500
     18 C14         15.6380     2.2540    -0.7760 ca         1 L3O      -0.048650
     19 C15         15.4350    -0.6820    -1.5450 ca         1 L3O      -0.148793
     20 CN1         14.8980    -4.5910    -1.1990 cc         1 L3O       0.301101
     21 NN1         14.0680    -5.4770    -0.6140 nd         1 L3O      -0.445800
     22 CN2         14.3910    -6.8150    -0.8480 cd         1 L3O       0.014512
     23 CN3         15.5270    -6.9670    -1.5930 cc         1 L3O      -0.257705
     24 SN1         16.2110    -5.4290    -2.0460 ss         1 L3O       0.062274
     25 C16         13.3120    -2.7370    -0.7910 c          1 L3O       0.566583
     26 O1          12.4480    -2.6730    -1.6750 o          1 L3O      -0.452832
     27 H1          10.9570    -2.5360     0.5850 h1         1 L3O       0.159798
     28 H2          11.6870    -2.3480     2.1850 h1         1 L3O       0.159798
     29 H3          11.6580    -0.9790     1.0510 h1         1 L3O       0.159798
     30 H4          15.3580    -2.4100     2.9620 hn         1 L3O       0.460530
     31 H5          16.2310    -2.9310     0.7290 hn         1 L3O       0.394983
     32 H6          15.8820    -3.4030    -3.5910 ha         1 L3O       0.140135
     33 H7          16.7790    -1.6900    -5.0300 ha         1 L3O       0.177853
     34 H8          16.6580     0.6820    -4.4120 ha         1 L3O       0.152338
     35 H9          15.3300     2.4000    -4.1660 ha         1 L3O       0.146318
     36 H10         14.8190     4.7550    -3.6300 ha         1 L3O       0.175280
     37 H11         14.7890     5.5260    -1.2730 ha         1 L3O       0.137979
     38 H12         15.8550     1.5830     0.0370 ha         1 L3O       0.109759
     39 H13         15.0400    -0.3900    -0.5830 ha         1 L3O       0.095614
     40 HN1         13.7690    -7.5950    -0.4290 h4         1 L3O       0.165805
     41 HN2         15.9900    -7.8910    -1.9000 h4         1 L3O       0.252333
     42 H14         13.6840    -2.0470     3.2070 hn         1 L3O       0.460530
@<TRIPOS>BOND
     1     1     2 1   
     2     1    27 1   
     3     1    28 1   
     4     1    29 1   
     5     2     3 2   
     6     2    25 1   
     7     3     4 1   
     8     3     5 1   
     9     4    30 1   
    10     4    42 1   
    11     5     6 1   
    12     5    31 1   
    13     6     7 1   
    14     6    20 1   
    15     6    25 1   
    16     7     8 ar  
    17     7    19 ar  
    18     8     9 ar  
    19     8    32 1   
    20     9    10 ar  
    21     9    33 1   
    22    10    11 ar  
    23    10    34 1   
    24    11    12 1   
    25    11    19 ar  
    26    12    13 ar  
    27    12    18 ar  
    28    13    14 ar  
    29    13    35 1   
    30    14    15 ar  
    31    14    36 1   
    32    15    16 ar  
    33    15    37 1   
    34    16    17 1   
    35    16    18 ar  
    36    18    38 1   
    37    19    39 1   
    38    20    21 2   
    39    20    24 1   
    40    21    22 1   
    41    22    23 2   
    42    22    40 1   
    43    23    24 1   
    44    23    41 1   
    45    25    26 2   
@<TRIPOS>SUBSTRUCTURE
     1 L3O         1 TEMP              0 ****  ****    0 ROOT
