@<TRIPOS>MOLECULE
L38
   48    51     1     0     0
SMALL
resp


@<TRIPOS>ATOM
      1 O1           3.5930   -49.9990     7.5550 o          1 L38      -0.800983
      2 C1           3.0000   -49.0710     6.9540 c          1 L38       0.886971
      3 O2           3.5620   -47.9820     6.7110 o          1 L38      -0.800983
      4 C2           1.5920   -49.2740     6.5450 cc         1 L38       0.039663
      5 C3          -0.3050   -50.5540     6.4880 ca         1 L38       0.376210
      6 C4          -1.2890   -51.5590     6.6190 ca         1 L38      -0.389244
      7 C5          -2.5510   -51.3710     6.0210 ca         1 L38      -0.114420
      8 C6          -2.8160   -50.1740     5.3190 ca         1 L38      -0.246378
      9 C7          -1.8240   -49.1780     5.2080 ca         1 L38      -0.204745
     10 C8          -0.5380   -49.3400     5.7780 ca         1 L38       0.024466
     11 C9           0.6730   -48.5470     5.8120 cd         1 L38      -0.194207
     12 C10          0.9020   -47.2140     5.1310 c3         1 L38       0.089128
     13 C11          0.4910   -45.9840     5.9600 c3         1 L38      -0.105787
     14 C12         -1.0330   -45.8410     6.1440 c3         1 L38       0.140855
     15 O3          -1.4400   -46.5420     7.3180 os         1 L38      -0.348076
     16 C13         -2.6980   -46.2730     7.8040 ca         1 L38       0.432754
     17 C18         -3.7550   -45.7260     7.0280 ca         1 L38      -0.287133
     18 C17         -5.0250   -45.4770     7.6010 cp         1 L38       0.007593
     19 C14         -5.2110   -45.7620     8.9760 ca         1 L38      -0.249708
     20 C15         -4.1690   -46.3090     9.7410 ca         1 L38      -0.055957
     21 C16         -2.9220   -46.5640     9.1580 ca         1 L38      -0.348409
     22 H1          -1.0640   -52.4680     7.1560 ha         1 L38       0.174750
     23 H2          -3.3110   -52.1390     6.1030 ha         1 L38       0.116044
     24 H3          -3.7870   -50.0270     4.8620 ha         1 L38       0.125651
     25 H4          -2.0520   -48.2620     4.6810 ha         1 L38       0.168810
     26 H5           0.3590   -47.1830     4.1860 hc         1 L38      -0.004397
     27 H6           1.9570   -47.1200     4.8540 hc         1 L38      -0.004397
     28 H7           0.8380   -45.1150     5.4100 hc         1 L38       0.070719
     29 H8           1.0190   -45.9540     6.9120 hc         1 L38       0.070719
     30 H9          -1.5690   -46.2180     5.2580 h1         1 L38       0.006161
     31 H10         -1.2610   -44.7800     6.2560 h1         1 L38       0.006161
     32 H19         -3.6130   -45.5210     5.9800 ha         1 L38       0.123176
     33 H11         -2.1260   -46.9750     9.7430 ha         1 L38       0.200836
     34 H12         -4.3290   -46.5250    10.7850 ha         1 L38       0.128438
     35 H13         -6.1600   -45.5760     9.4590 ha         1 L38       0.126669
     36 N1           1.0010   -50.4680     6.9460 na         1 L38      -0.574691
     37 CR1         -8.2960   -43.9830     5.1870 ca         1 L38      -0.139580
     38 CR2         -6.9690   -43.6320     4.8680 ca         1 L38      -0.162679
     39 CR3         -5.9070   -44.1040     5.6740 ca         1 L38      -0.164365
     40 CR4         -6.1470   -44.9440     6.7920 cp         1 L38       0.148747
     41 CR5         -7.4940   -45.2650     7.0980 ca         1 L38      -0.164365
     42 CR6         -8.5570   -44.7800     6.3150 ca         1 L38      -0.162679
     43 H            1.5290   -51.1450     7.4980 hn         1 L38       0.387649
     44 HR1         -9.1040   -43.6280     4.5610 ha         1 L38       0.127447
     45 HR2         -6.7450   -43.0110     4.0130 ha         1 L38       0.135938
     46 HR3         -4.8940   -43.8110     5.4070 ha         1 L38       0.135844
     47 HR4         -7.7360   -45.9130     7.9200 ha         1 L38       0.135844
     48 HR5         -9.5750   -45.0470     6.5540 ha         1 L38       0.135938
@<TRIPOS>BOND
     1     1     2 1   
     2     2     3 1   
     3     2     4 1   
     4     4    11 2   
     5     4    36 1   
     6     5     6 ar  
     7     5    10 ar  
     8     5    36 1   
     9     6     7 ar  
    10     6    22 1   
    11     7     8 ar  
    12     7    23 1   
    13     8     9 ar  
    14     8    24 1   
    15     9    10 ar  
    16     9    25 1   
    17    10    11 1   
    18    11    12 1   
    19    12    13 1   
    20    12    26 1   
    21    12    27 1   
    22    13    14 1   
    23    13    28 1   
    24    13    29 1   
    25    14    15 1   
    26    14    30 1   
    27    14    31 1   
    28    15    16 1   
    29    16    17 ar  
    30    16    21 ar  
    31    17    18 ar  
    32    17    32 1   
    33    18    19 ar  
    34    18    40 1   
    35    19    20 ar  
    36    19    35 1   
    37    20    21 ar  
    38    20    34 1   
    39    21    33 1   
    40    36    43 1   
    41    37    38 ar  
    42    37    42 ar  
    43    37    44 1   
    44    38    39 ar  
    45    38    45 1   
    46    39    40 ar  
    47    39    46 1   
    48    40    41 ar  
    49    41    42 ar  
    50    41    47 1   
    51    42    48 1   
@<TRIPOS>SUBSTRUCTURE
     1 L38         1 TEMP              0 ****  ****    0 ROOT
