@<TRIPOS>MOLECULE
L3M
   44    47     1     0     0
SMALL
resp


@<TRIPOS>ATOM
      1 C1          11.7750    -2.0500     1.1860 c3         1 L3M      -0.229858
      2 N1          13.0810    -2.4050     0.6210 n          1 L3M      -0.088783
      3 C2          14.2520    -2.5120     1.2700 cz         1 L3M       0.676191
      4 N2          14.4440    -2.3220     2.5810 nh         1 L3M      -0.922204
      5 N3          15.2420    -2.8670     0.4440 nh         1 L3M      -0.466324
      6 C3          14.7740    -3.0860    -0.9270 c3         1 L3M      -0.299410
      7 CK1         14.9000    -4.5950    -1.2710 ca         1 L3M      -0.498923
      8 CK2         16.0470    -5.1640    -1.8460 ca         1 L3M       0.636414
      9 NK1         16.1700    -6.4830    -2.0820 nb         1 L3M      -0.822898
     10 CK3         15.1540    -7.2490    -1.7240 ca         1 L3M       0.851384
     11 NK2         14.0440    -6.8480    -1.1290 nb         1 L3M      -0.822898
     12 CK4         13.9100    -5.5340    -0.9210 ca         1 L3M       0.636414
     13 C4          15.3790    -2.0450    -1.9000 ca         1 L3M       0.341910
     14 C5          15.8330    -2.3840    -3.1970 ca         1 L3M      -0.273813
     15 C6          16.3420    -1.3950    -4.0510 ca         1 L3M      -0.154912
     16 C7          16.3040    -0.0420    -3.6750 ca         1 L3M      -0.101828
     17 C8          15.7980     0.3540    -2.4200 cp         1 L3M       0.000072
     18 C9          15.5970     1.7920    -2.0980 cp         1 L3M       0.054941
     19 C10         15.2950     2.7190    -3.1260 ca         1 L3M      -0.151786
     20 C11         14.9740     4.0600    -2.8370 ca         1 L3M      -0.198927
     21 C12         14.9640     4.5100    -1.5060 ca         1 L3M      -0.017748
     22 C13         15.3030     3.6220    -0.4730 ca         1 L3M      -0.051609
     23 CL1         15.3090     4.1920     1.1560 cl         1 L3M      -0.093010
     24 C14         15.6160     2.2790    -0.7700 ca         1 L3M      -0.061355
     25 C15         15.4020    -0.6710    -1.5260 ca         1 L3M      -0.229127
     26 C16         13.2880    -2.7180    -0.7540 c          1 L3M       0.547832
     27 O1          12.3960    -2.7760    -1.6050 o          1 L3M      -0.424126
     28 H1          10.9780    -2.6470     0.7440 h1         1 L3M       0.141500
     29 H2          11.7570    -2.2170     2.2630 h1         1 L3M       0.141500
     30 H3          11.5610    -1.0000     0.9840 h1         1 L3M       0.141500
     31 H4          15.3900    -2.3980     2.9630 hn         1 L3M       0.471892
     32 H5          16.2250    -2.9100     0.7180 hn         1 L3M       0.421364
     33 HK1         16.8880    -4.5570    -2.1240 h4         1 L3M       0.057227
     34 HK2         15.2630    -8.3090    -1.8720 h5         1 L3M       0.026668
     35 HK3         12.9970    -5.2630    -0.4150 h4         1 L3M       0.057227
     36 H6          15.7950    -3.3850    -3.5940 ha         1 L3M       0.206362
     37 H7          16.7240    -1.6740    -5.0220 ha         1 L3M       0.181052
     38 H8          16.6360     0.6960    -4.3900 ha         1 L3M       0.155461
     39 H9          15.2470     2.3930    -4.1560 ha         1 L3M       0.149532
     40 H10         14.7010     4.7390    -3.6310 ha         1 L3M       0.176017
     41 H11         14.6920     5.5290    -1.2780 ha         1 L3M       0.140476
     42 H12         15.8580     1.6170     0.0460 ha         1 L3M       0.112951
     43 H13         15.0170    -0.3790    -0.5610 ha         1 L3M       0.111759
     44 H14         13.7270    -2.0000     3.2300 hn         1 L3M       0.471892
@<TRIPOS>BOND
     1     1     2 1   
     2     1    28 1   
     3     1    29 1   
     4     1    30 1   
     5     2     3 2   
     6     2    26 1   
     7     3     4 1   
     8     3     5 1   
     9     4    31 1   
    10     4    44 1   
    11     5     6 1   
    12     5    32 1   
    13     6     7 1   
    14     6    13 1   
    15     6    26 1   
    16     7     8 ar  
    17     7    12 ar  
    18     8     9 ar  
    19     8    33 1   
    20     9    10 ar  
    21    10    11 ar  
    22    10    34 1   
    23    11    12 ar  
    24    12    35 1   
    25    13    14 ar  
    26    13    25 ar  
    27    14    15 ar  
    28    14    36 1   
    29    15    16 ar  
    30    15    37 1   
    31    16    17 ar  
    32    16    38 1   
    33    17    18 1   
    34    17    25 ar  
    35    18    19 ar  
    36    18    24 ar  
    37    19    20 ar  
    38    19    39 1   
    39    20    21 ar  
    40    20    40 1   
    41    21    22 ar  
    42    21    41 1   
    43    22    23 1   
    44    22    24 ar  
    45    24    42 1   
    46    25    43 1   
    47    26    27 2   
@<TRIPOS>SUBSTRUCTURE
     1 L3M         1 TEMP              0 ****  ****    0 ROOT
