@<TRIPOS>MOLECULE
L47
   39    41     1     0     0
SMALL
No Charge or Current Charge


@<TRIPOS>ATOM
      1 C1          -1.9610    21.5500   -27.3300 ca      1201 L47      -0.214458
      2 C2          -1.2940    22.4120   -28.1960 ca      1201 L47      -0.010667
      3 C3          -1.9550    22.9520   -29.2940 ca      1201 L47      -0.145840
      4 C4          -3.3000    22.6220   -29.5430 ca      1201 L47       0.187756
      5 C5          -3.9690    21.7590   -28.6530 ca      1201 L47      -0.145840
      6 C6          -3.2920    21.2290   -27.5620 ca      1201 L47      -0.010667
      7 CL1         -5.6400    21.3530   -28.9190 cl      1201 L47      -0.059115
      8 C8          -4.0400    23.1520   -30.7110 c       1201 L47       0.734791
      9 O9          -4.2270    22.4200   -31.6680 o       1201 L47      -0.568108
     10 N10         -4.5130    24.4120   -30.6480 n       1201 L47      -0.763076
     11 C11         -5.2870    25.1110   -31.5800 ca      1201 L47       0.756447
     12 C12         -5.9620    24.5480   -32.6810 ca      1201 L47      -0.616352
     13 C13         -6.7810    25.3610   -33.4590 ca      1201 L47       0.326691
     14 N14         -6.9230    26.6540   -33.1830 nb      1201 L47      -0.735072
     15 C15         -6.2980    27.2320   -32.1580 ca      1201 L47       1.000623
     16 C16         -5.5070    26.4570   -31.3070 ca      1201 L47      -0.851076
     17 N17         -6.5390    28.5830   -31.8840 n       1201 L47      -0.853589
     18 C18         -5.7130    29.4450   -31.2330 c       1201 L47       0.790338
     19 O19         -4.6160    29.1220   -30.8100 o       1201 L47      -0.575505
     20 CL2         -1.1120    24.0510   -30.3320 cl      1201 L47      -0.059115
     21 H1          -1.4440    21.1320   -26.4790 ha      1201 L47       0.171386
     22 H2          -0.2590    22.6640   -28.0160 ha      1201 L47       0.134640
     23 H6          -3.8110    20.5610   -26.8910 ha      1201 L47       0.134640
     24 HN10        -4.3170    24.9850   -29.8390 hn      1201 L47       0.363464
     25 H12         -5.8400    23.4990   -32.9090 ha      1201 L47       0.262577
     26 H13         -7.3120    24.9440   -34.3020 h4      1201 L47       0.099206
     27 H16         -5.0640    26.9090   -30.4310 ha      1201 L47       0.294645
     28 HN17        -7.4050    29.0130   -32.1800 hn      1201 L47       0.361566
     29 C20         -6.2070    30.8550   -31.0260 cy      1201 L47      -0.054877
     30 C101        -5.6710    31.4770   -29.7310 cy      1201 L47      -0.191325
     31 C102        -4.5280    32.0860   -30.5500 cy      1201 L47       0.064348
     32 C103        -5.3810    31.8830   -31.8080 cy      1201 L47      -0.191325
     33 H111        -6.3590    32.2530   -29.3150 hc      1201 L47       0.071354
     34 H112        -5.3500    30.7400   -28.9560 hc      1201 L47       0.071354
     35 H121        -4.2970    33.1510   -30.3090 hc      1201 L47       0.012878
     36 H122        -3.6140    31.4450   -30.5480 hc      1201 L47       0.012878
     37 H131        -5.9740    32.7930   -32.0720 hc      1201 L47       0.071354
     38 H132        -4.8300    31.4700   -32.6860 hc      1201 L47       0.071354
     39 H21         -7.2840    30.9670   -31.1540 hc      1201 L47       0.051717
@<TRIPOS>BOND
     1     1     2 ar  
     2     1     6 ar  
     3     1    21 1   
     4     2     3 ar  
     5     2    22 1   
     6     3     4 ar  
     7     3    20 1   
     8     4     5 ar  
     9     4     8 1   
    10     5     6 ar  
    11     5     7 1   
    12     6    23 1   
    13     8     9 2   
    14     8    10 1   
    15    10    11 1   
    16    10    24 1   
    17    11    12 ar  
    18    11    16 ar  
    19    12    13 ar  
    20    12    25 1   
    21    13    14 ar  
    22    13    26 1   
    23    14    15 ar  
    24    15    16 ar  
    25    15    17 1   
    26    16    27 1   
    27    17    18 1   
    28    17    28 1   
    29    18    19 2   
    30    18    29 1   
    31    29    30 1   
    32    29    32 1   
    33    29    39 1   
    34    30    31 1   
    35    30    33 1   
    36    30    34 1   
    37    31    32 1   
    38    31    35 1   
    39    31    36 1   
    40    32    37 1   
    41    32    38 1   
@<TRIPOS>SUBSTRUCTURE
     1 L47         1 TEMP              0 ****  ****    0 ROOT
