@<TRIPOS>MOLECULE
L31
   41    43     1     0     0
SMALL
resp


@<TRIPOS>ATOM
      1 O1           3.5640   -47.7530     6.2140 o          1 L31      -0.793686
      2 C1           3.0120   -48.7550     6.7450 c          1 L31       0.875472
      3 O2           3.6120   -49.5070     7.5450 o          1 L31      -0.793686
      4 C2           1.5970   -49.0610     6.3970 cc         1 L31       0.035114
      5 C3          -0.2440   -50.4130     6.4640 ca         1 L31       0.360941
      6 C4          -1.2040   -51.4310     6.6790 ca         1 L31      -0.376308
      7 C5          -2.5040   -51.2790     6.1610 ca         1 L31      -0.116573
      8 C6          -2.8380   -50.1270     5.4230 ca         1 L31      -0.260598
      9 C7          -1.8790   -49.1150     5.2070 ca         1 L31      -0.183901
     10 C8          -0.5660   -49.2280     5.7280 ca         1 L31       0.018418
     11 C9           0.6140   -48.3960     5.7010 cd         1 L31      -0.183443
     12 C10          0.7300   -47.0350     5.0530 c3         1 L31       0.089536
     13 C11          0.7550   -45.8920     6.0870 c3         1 L31      -0.006617
     14 C12         -0.5320   -45.7700     6.9090 c3         1 L31      -0.075133
     15 O3          -1.5380   -45.2370     6.0610 os         1 L31      -0.384923
     16 C13         -2.7970   -45.0650     6.5800 ca         1 L31       0.491769
     17 C16         -3.2770   -45.7160     7.7440 ca         1 L31      -0.347761
     18 C15         -4.5940   -45.5050     8.1940 ca         1 L31      -0.008046
     19 C14         -5.4350   -44.6170     7.4870 ca         1 L31      -0.267100
     20 C17         -4.9680   -43.9680     6.3320 ca         1 L31      -0.046083
     21 C18         -3.6550   -44.1970     5.8830 ca         1 L31      -0.353689
     22 H1          -0.9290   -52.3080     7.2370 ha         1 L31       0.174320
     23 H2          -3.2340   -52.0540     6.3290 ha         1 L31       0.120798
     24 H3          -3.8310   -50.0300     5.0250 ha         1 L31       0.134622
     25 H4          -2.1600   -48.2370     4.6390 ha         1 L31       0.162352
     26 H5          -0.0760   -46.8840     4.3250 hc         1 L31      -0.002436
     27 H6           1.6500   -47.0030     4.4710 hc         1 L31      -0.002436
     28 H7           0.9510   -44.9490     5.5770 hc         1 L31       0.041237
     29 H8           1.5890   -46.0430     6.7680 hc         1 L31       0.041237
     30 H9          -0.3750   -45.0980     7.7560 h1         1 L31       0.100854
     31 H10         -0.8070   -46.7440     7.3140 h1         1 L31       0.100854
     32 H11         -2.6510   -46.4010     8.2890 ha         1 L31       0.173521
     33 H19         -3.3050   -43.7000     4.9910 ha         1 L31       0.178031
     34 H22         -5.6170   -43.3000     5.7850 ha         1 L31       0.132511
     35 H13         -6.4440   -44.4500     7.8280 ha         1 L31       0.157286
     36 N1           1.0790   -50.2790     6.8440 na         1 L31      -0.561009
     37 H            1.6580   -50.9410     7.3680 hn         1 L31       0.384838
     38 FD1         -5.7750   -45.4080    10.2140 f          1 L31      -0.234367
     39 CD1         -5.1350   -46.2510     9.4020 c3         1 L31       0.692818
     40 FD2         -5.9930   -47.1820     8.9850 f          1 L31      -0.234367
     41 FD3         -4.1590   -46.8450    10.0910 f          1 L31      -0.234367
@<TRIPOS>BOND
     1     1     2 1   
     2     2     3 1   
     3     2     4 1   
     4     4    11 2   
     5     4    36 1   
     6     5     6 ar  
     7     5    10 ar  
     8     5    36 1   
     9     6     7 ar  
    10     6    22 1   
    11     7     8 ar  
    12     7    23 1   
    13     8     9 ar  
    14     8    24 1   
    15     9    10 ar  
    16     9    25 1   
    17    10    11 1   
    18    11    12 1   
    19    12    13 1   
    20    12    26 1   
    21    12    27 1   
    22    13    14 1   
    23    13    28 1   
    24    13    29 1   
    25    14    15 1   
    26    14    30 1   
    27    14    31 1   
    28    15    16 1   
    29    16    17 ar  
    30    16    21 ar  
    31    17    18 ar  
    32    17    32 1   
    33    18    19 ar  
    34    18    39 1   
    35    19    20 ar  
    36    19    35 1   
    37    20    21 ar  
    38    20    34 1   
    39    21    33 1   
    40    36    37 1   
    41    38    39 1   
    42    39    40 1   
    43    39    41 1   
@<TRIPOS>SUBSTRUCTURE
     1 L31         1 TEMP              0 ****  ****    0 ROOT
